<?xml version="1.0" encoding="UTF-8"?>

<!-- generated on 2023-03-21 10:47:16 by Eclipse SUMO netedit Version 1.16.0
-->

<routes xmlns:xsi="http://www.w3.org/2001/XMLSchema-instance" xsi:noNamespaceSchemaLocation="http://sumo.dlr.de/xsd/routes_file.xsd">
    <!-- Routes -->
    <route id="r_0" edges="E2"/>
    <!-- Vehicles, persons and containers (sorted by depart)
    <trip id="t_0" depart="0.00" from="E2" to="E2"/> -->
    <!-- add the vehicle types -->
    <!-- <vType id="IDM_car" carFollowModel="IDM"/>
    <vType id="Krauss_car" carFollowModel="Krauss"/>
    <vType id="W99_car" carFollowModel="W99" /> -->

</routes>
